/data13/yzhang425/GEOS-CHEM/runtest/globchem.dat